Version 4
SHEET 1 2788 5112
WIRE -224 -112 -272 -112
WIRE -848 -96 -1296 -96
WIRE -1296 -80 -1296 -96
WIRE -224 -80 -272 -80
WIRE -224 -48 -272 -48
WIRE -224 -16 -272 -16
WIRE -1296 16 -1296 0
WIRE -224 16 -272 16
WIRE -544 32 -544 0
WIRE -224 48 -272 48
WIRE -224 80 -272 80
WIRE -1296 112 -1296 96
WIRE -544 144 -544 112
FLAG -544 144 0
FLAG -1296 192 0
FLAG -848 -96 v_in
FLAG -544 0 vcc
FLAG -224 -112 vcc
FLAG -224 -16 v_in
FLAG -224 -80 0
SYMBOL voltage -544 16 R0
WINDOW 3 -38 55 Right 2
WINDOW 123 0 0 Left 2
WINDOW 39 0 0 Left 2
WINDOW 0 78 59 Right 2
SYMATTR Value {VCC}
SYMATTR InstName vcc
SYMBOL voltage -1296 -96 R0
WINDOW 0 -113 70 Bottom 2
WINDOW 3 47 58 Left 2
WINDOW 123 0 0 Left 2
WINDOW 39 93 56 VBottom 2
SYMATTR InstName PsuedoNoise
SYMATTR Value SFFM(0 {NOISE*VCC*0.015} 121 1 49)
SYMBOL voltage -1296 0 R0
WINDOW 0 -111 67 Bottom 2
WINDOW 3 49 57 Left 2
WINDOW 123 0 0 Left 2
WINDOW 39 0 0 Left 2
SYMATTR InstName AnalogInput
SYMATTR Value PULSE({VL} {VH} .25 0.025 0.5 0.05 {PERIOD})
SYMBOL voltage -1296 96 R0
WINDOW 0 -116 58 Left 2
WINDOW 3 45 57 Left 2
WINDOW 123 0 0 Left 2
WINDOW 39 0 0 Left 2
SYMATTR InstName Sweep
SYMATTR Value SINE({VCC*(1-TS)/2} {VCC*(0.9-TS)/2} .09)
SYMBOL frontend -304 -16 R0
WINDOW 0 -79 44 VLeft 2
SYMATTR InstName frontend
TEXT -1488 -240 Left 2 !.tran 0 15 150m \n.param VCC=2 PERIOD=2 TS=.2 NOISE=1\n.param VL=0 VH=VCC*TS
TEXT -1360 -112 Right 2 ;Test signal
TEXT -648 -112 Left 2 ;Power supply
TEXT -1024 -240 Left 2 !;.step param NOISE LIST 0 1\n;.step param VCC LIST 2.0 3.6\n;.step param PERIOD LIST 2 0.2
RECTANGLE Normal -1488 -128 -672 224
RECTANGLE Normal -448 224 -656 -128
