Version 4
SHEET 1 2788 5112
WIRE -784 -96 -1296 -96
WIRE -1296 -80 -1296 -96
WIRE 480 -48 480 -80
WIRE -224 -32 -352 -32
WIRE 448 -32 240 -32
WIRE 624 -16 512 -16
WIRE 656 -16 624 -16
WIRE 448 0 368 0
WIRE -1296 16 -1296 0
WIRE 16 16 16 -16
WIRE -544 32 -544 0
WIRE -352 32 -352 -32
WIRE -320 32 -352 32
WIRE -224 48 -224 -32
WIRE -224 48 -256 48
WIRE -192 48 -224 48
WIRE 368 48 368 0
WIRE 480 48 480 16
WIRE -448 64 -448 48
WIRE -320 64 -448 64
WIRE -448 80 -448 64
WIRE -288 96 -288 80
WIRE 368 96 368 48
WIRE 496 96 368 96
WIRE 624 96 624 -16
WIRE 624 96 576 96
WIRE -1296 112 -1296 96
WIRE -544 144 -544 112
WIRE 16 160 16 96
WIRE 16 160 0 160
WIRE 96 160 16 160
WIRE -448 176 -448 160
WIRE 256 176 240 176
WIRE 368 176 368 96
WIRE 368 176 336 176
WIRE 400 176 368 176
WIRE 512 176 480 176
FLAG -544 0 vcc
FLAG -784 -96 v_in
FLAG 480 -80 vcc
FLAG 480 48 0
FLAG -64 160 v_in
FLAG 656 -16 v_out
FLAG 240 -32 vac
FLAG 96 160 vac
FLAG -448 -32 vcc
FLAG -448 176 0
FLAG -288 16 vcc
FLAG -288 96 0
FLAG -192 48 vref
FLAG 16 -16 vref
FLAG 240 176 vref
FLAG -544 144 0
FLAG -1296 192 0
FLAG 368 48 vcomp
FLAG 512 176 vcc
SYMBOL voltage -544 16 R0
WINDOW 3 -107 55 Left 2
WINDOW 123 0 0 Left 2
WINDOW 39 0 0 Left 2
WINDOW 0 8 6 Left 2
SYMATTR Value {VCC}
SYMATTR InstName vcc
SYMBOL voltage -1296 -96 R0
WINDOW 0 -113 70 Bottom 2
WINDOW 3 47 58 Left 2
WINDOW 123 0 0 Left 2
WINDOW 39 93 56 VBottom 2
SYMATTR InstName PsuedoNoise
SYMATTR Value SFFM(0 {NOISE*VCC*0.015} 121 1 49)
SYMBOL voltage -1296 0 R0
WINDOW 0 -111 67 Bottom 2
WINDOW 3 49 57 Left 2
WINDOW 123 0 0 Left 2
WINDOW 39 0 0 Left 2
SYMATTR InstName AnalogInput
SYMATTR Value PULSE({VL} {VH} .25 0.02 0.5 0.01 {PERIOD})
SYMBOL voltage -1296 96 R0
WINDOW 0 -116 58 Left 2
WINDOW 3 45 57 Left 2
WINDOW 123 0 0 Left 2
WINDOW 39 0 0 Left 2
SYMATTR InstName Sweep
SYMATTR Value SINE({VCC*(1-TS)/2} {VCC*(1-TS)/2} .09)
SYMBOL res 0 0 R0
SYMATTR InstName R5
SYMATTR Value 47k
SYMBOL cap 0 144 R90
WINDOW 0 0 32 VBottom 2
WINDOW 3 32 32 VTop 2
SYMATTR InstName C1
SYMATTR Value 100n
SYMBOL res -464 -48 R0
SYMATTR InstName R11
SYMATTR Value 1000k
SYMATTR SpiceLine tol=2 pwr=0.25
SYMBOL res -464 64 R0
SYMATTR InstName R12
SYMATTR Value 1000k
SYMATTR SpiceLine tol=2 pwr=0.25
SYMBOL SBORKA\\COMPARATOR\\TLV3491 480 -16 R0
WINDOW 38 12 37 Left 2
WINDOW 0 24 -26 Left 2
SYMATTR InstName U1
SYMBOL Opamps\\LT6004 -288 48 R0
SYMATTR InstName U2
SYMBOL res 352 160 R90
WINDOW 0 0 56 VBottom 2
WINDOW 3 32 56 VTop 2
SYMATTR InstName R1
SYMATTR Value 100k
SYMBOL res 496 160 R90
WINDOW 0 0 56 VBottom 2
WINDOW 3 32 56 VTop 2
SYMATTR InstName R2
SYMATTR Value 2200k
SYMBOL res 592 80 R90
WINDOW 0 0 56 VBottom 2
WINDOW 3 32 56 VTop 2
SYMATTR InstName R3
SYMATTR Value 3300k
TEXT -648 -216 Left 2 !.tran 0 15 150m startup uic\n.param VCC=2 PERIOD=.2 TS=.2 NOISE=1\n.param VL=0 VH=VCC*TS
TEXT -1360 -112 Right 2 ;Test signal
TEXT -648 -104 Left 2 ;Power supply & reference
TEXT -1368 -224 Left 2 !;.step param NOISE LIST 0 1\n;.step param VCC LIST 2.0 3.6\n;.step param PERIOD LIST 2 0.2
TEXT 200 -104 Left 2 ;Pulse detection
TEXT -120 -112 Left 2 ;AC couple
RECTANGLE Normal -1488 -128 -672 224
RECTANGLE Normal -144 224 -656 -128
RECTANGLE Normal 736 -128 192 224
RECTANGLE Normal 176 -128 -128 224
