Version 4
SHEET 1 2788 5112
WIRE -224 -32 -224 -64
WIRE 304 16 144 16
WIRE 304 32 304 16
WIRE 16 64 16 48
WIRE -224 80 -224 48
WIRE -272 112 -432 112
WIRE 144 128 144 16
WIRE 208 128 144 128
WIRE 304 144 304 112
WIRE 304 144 272 144
WIRE 416 144 304 144
WIRE 16 160 16 144
WIRE 16 160 0 160
WIRE 128 160 16 160
WIRE 208 160 128 160
WIRE -432 176 -432 112
WIRE -368 176 -432 176
WIRE -272 192 -272 112
WIRE -272 192 -304 192
WIRE -208 192 -272 192
WIRE 240 192 240 176
WIRE -544 208 -544 176
WIRE -496 208 -544 208
WIRE -464 208 -496 208
WIRE -368 208 -464 208
WIRE -544 240 -544 208
WIRE -336 240 -336 224
WIRE -656 256 -1088 256
WIRE -1088 272 -1088 256
WIRE -272 272 -432 272
WIRE -432 336 -432 272
WIRE -368 336 -432 336
WIRE -544 352 -544 320
WIRE -272 352 -272 272
WIRE -272 352 -304 352
WIRE -208 352 -272 352
WIRE 160 352 160 304
WIRE -1088 368 -1088 352
WIRE -464 368 -464 208
WIRE -368 368 -464 368
WIRE 48 368 48 336
WIRE 128 368 48 368
WIRE 336 384 192 384
WIRE 352 384 336 384
WIRE -336 400 -336 384
WIRE 128 400 48 400
WIRE -272 432 -432 432
WIRE -1088 464 -1088 448
WIRE 160 480 160 416
WIRE -432 496 -432 432
WIRE -368 496 -432 496
WIRE -272 512 -272 432
WIRE -272 512 -304 512
WIRE -208 512 -272 512
WIRE -464 528 -464 368
WIRE -368 528 -464 528
WIRE 48 528 48 400
WIRE 208 528 48 528
WIRE 336 528 336 384
WIRE 336 528 288 528
WIRE -1088 560 -1088 544
WIRE -336 560 -336 544
FLAG -224 -64 vcc
FLAG -656 256 v_in
FLAG 160 304 vcc
FLAG 160 480 0
FLAG -64 160 v_in
FLAG 352 384 v_outa
FLAG 416 144 vac
FLAG 48 336 vac
FLAG 240 112 vcc
FLAG 128 160 vatt
FLAG 240 192 0
FLAG -544 96 vcc
FLAG -544 352 0
FLAG -336 160 vcc
FLAG -336 240 0
FLAG -208 192 vg1
FLAG 304 -64 vg1
FLAG -336 320 vcc
FLAG -336 400 0
FLAG -208 352 vg2
FLAG -496 208 vg
FLAG 16 48 vg2
FLAG -336 480 vcc
FLAG -336 560 0
FLAG -208 512 vg3
FLAG -32 400 vg3
FLAG -224 80 0
FLAG -1088 560 0
SYMBOL voltage -224 -48 R0
WINDOW 3 -107 55 Left 2
WINDOW 123 0 0 Left 2
WINDOW 39 0 0 Left 2
WINDOW 0 8 6 Left 2
SYMATTR Value {VCC}
SYMATTR InstName vcc
SYMBOL voltage -1088 256 R0
WINDOW 0 -113 70 Bottom 2
WINDOW 3 47 58 Left 2
WINDOW 123 0 0 Left 2
WINDOW 39 93 56 VBottom 2
SYMATTR InstName PsuedoNoise
SYMATTR Value SFFM(0 {1*VCC*0.015} 43 3 13)
SYMBOL voltage -1088 352 R0
WINDOW 0 -111 67 Bottom 2
WINDOW 3 49 57 Left 2
WINDOW 123 0 0 Left 2
WINDOW 39 0 0 Left 2
SYMATTR InstName AnalogInput
SYMATTR Value PULSE({VL} {VH} .1 .01 .05 .02 {PERIOD})
SYMBOL voltage -1088 448 R0
WINDOW 0 -116 58 Left 2
WINDOW 3 45 57 Left 2
WINDOW 123 0 0 Left 2
WINDOW 39 0 0 Left 2
SYMATTR InstName Sweep
SYMATTR Value SINE({1*VCC*0.3} {1*VCC*0.3} .09)
SYMBOL res 0 48 R0
SYMATTR InstName R5
SYMATTR Value 100k
SYMBOL cap 0 144 R90
WINDOW 0 0 32 VBottom 2
WINDOW 3 32 32 VTop 2
SYMATTR InstName C1
SYMATTR Value .1µ
SYMBOL Comparators\\LT1716 160 384 R0
SYMATTR InstName U1
SYMBOL res 304 512 R90
WINDOW 0 0 56 VBottom 2
WINDOW 3 32 56 VTop 2
SYMATTR InstName R1
SYMATTR Value 100k
SYMBOL Opamps\\LT6005 240 144 R0
SYMATTR InstName U4
SYMBOL res 288 16 R0
SYMATTR InstName R6
SYMATTR Value 470k
SYMBOL res 288 -80 R0
SYMATTR InstName R7
SYMATTR Value 100k
SYMBOL res -560 80 R0
SYMATTR InstName R11
SYMATTR Value 100k
SYMATTR SpiceLine tol=2 pwr=0.25
SYMBOL res -560 224 R0
SYMATTR InstName R12
SYMATTR Value 100k
SYMATTR SpiceLine tol=2 pwr=0.25
SYMBOL Opamps\\LT6005 -336 192 R0
SYMATTR InstName U2
SYMBOL Opamps\\LT6005 -336 352 R0
SYMATTR InstName U3
SYMBOL res 64 384 R90
WINDOW 0 0 56 VBottom 2
WINDOW 3 32 56 VTop 2
SYMATTR InstName R2
SYMATTR Value 47k
SYMBOL Opamps\\LT6005 -336 512 R0
SYMATTR InstName U5
TEXT -1296 -104 Left 2 !.tran 0 15 50m startup uic\n.param VCC=1.8 PERIOD=1 TL=0.1 TH=0.3\n.param VL=VCC*TL VH=VCC*TH
TEXT -1152 240 Right 2 ;Test signal
TEXT -1296 136 Left 4 ;LT6005 = MCP6044\nLT1716 = MCP6542
TEXT -576 -104 Left 2 ;Power supply
TEXT -1296 24 Left 2 !*.step param VCC LIST 1.8 2.7 3.6\n*.step param PERIOD LIST 10 1 0.1
TEXT -112 264 Left 2 ;Pulse detection
TEXT -120 -112 Left 2 ;Conditioning
RECTANGLE Normal -1296 224 -592 592
RECTANGLE Normal -144 592 -584 -120
RECTANGLE Normal 480 240 -128 592
RECTANGLE Normal 480 -128 -128 224
