Version 4
SHEET 1 880 680
WIRE 400 80 160 80
WIRE 160 112 160 80
WIRE 400 112 400 80
WIRE -48 144 -96 144
WIRE 112 144 32 144
WIRE 160 224 160 192
WIRE -96 304 -96 144
WIRE 160 304 -96 304
WIRE 400 304 400 192
WIRE 400 304 160 304
FLAG 160 304 0
SYMBOL SBORKA\\OPTO\\NORP-12 144 96 R0
SYMATTR InstName U1
SYMBOL res 144 208 R0
SYMATTR InstName R1
SYMATTR Value 1000k
SYMBOL voltage 400 96 R0
WINDOW 123 0 0 Left 2
WINDOW 39 0 0 Left 2
SYMATTR InstName V1
SYMATTR Value 3
SYMBOL current -48 144 R270
WINDOW 0 32 40 VTop 2
WINDOW 3 -32 40 VBottom 2
WINDOW 123 0 0 Left 2
WINDOW 39 0 0 Left 2
SYMATTR InstName I1
SYMATTR Value PULSE(0.05m 1m 0 10m .1m 10u 1)
TEXT 112 40 Left 2 !.tran 5
